LTspice 24.0.9 for Windows
Circuit: * C:\Users\lenovo\Desktop\Tup Tom Srotom\PUTM_EV_VOLTAGE_INDICATOR_2024\documentation\ltspice\relax_osc_diac.asc
Start Time: Mon Mar 18 21:22:05 2024
solver = Normal
Maximum thread count: 8
tnom = 27
temp = 27
method = modified trap
Direct Newton iteration for .op point succeeded.
Total elapsed time: 0.667 seconds.

